data_block_1
_audit_creation_date         'Tue Sep 13 14:36:38 2022'
_audit_creation_method       'generated by GDIS v0.99'


_cell_length_a              3.3308
_cell_length_b              3.3308
_cell_length_c             20.0000
_cell_angle_alpha          90.00
_cell_angle_beta           90.00
_cell_angle_gamma          60.00


_symmetry_space_group_name_H-M   'P 1'
_symmetry_Int_Tables_number       1


loop_
_atom_site_label
_atom_site_fract_x
_atom_site_fract_y
_atom_site_fract_z
 P   0.000022   0.000022   0.134864
 P   0.333175   0.333175   0.071351


